Version 4.1
SHEET 1 880 1076
WIRE 80 -176 80 -272
WIRE 80 -128 80 -160
WIRE 32 -96 -192 -96
WIRE 80 -32 80 -80
WIRE 80 16 80 -16
WIRE 32 48 -192 48
WIRE 80 176 80 64
WIRE 368 176 80 176
WIRE 80 240 80 176
WIRE 272 240 80 240
WIRE 80 256 80 240
WIRE 272 320 272 240
WIRE 32 336 -176 336
WIRE 80 336 80 304
WIRE 224 400 -176 400
WIRE 272 400 272 368
WIRE -1008 416 -1008 352
WIRE -896 416 -896 352
WIRE 80 432 80 352
WIRE 272 432 272 416
WIRE 272 432 80 432
WIRE 272 464 272 432
WIRE -1008 544 -1008 496
WIRE -896 544 -896 496
WIRE -1008 688 -1008 656
WIRE -896 688 -896 656
WIRE -1008 800 -1008 768
WIRE -896 800 -896 768
WIRE -944 1056 -944 1040
FLAG 272 464 0
FLAG 80 -272 VDD
FLAG 368 176 Vo
FLAG -1008 544 0
FLAG -896 544 0
FLAG -192 48 A
FLAG -176 336 A
FLAG -176 400 B
FLAG -192 -96 B
FLAG -944 1056 0
FLAG -944 960 VDD
FLAG -1008 800 0
FLAG -896 800 0
FLAG -1008 656 A
FLAG -896 656 B
SYMBOL nmos4 32 256 R0
SYMATTR InstName M1
SYMATTR Value N_1u
SYMATTR Value2 l=1u w={wn}
SYMBOL nmos4 224 320 R0
SYMATTR InstName M2
SYMATTR Value N_1u
SYMATTR Value2 l=1u w={wn}
SYMBOL pmos4 32 -176 R0
SYMATTR InstName M3
SYMATTR Value P_1u
SYMATTR Value2 l=1u w={wp}
SYMBOL pmos4 32 -32 R0
SYMATTR InstName M4
SYMATTR Value P_1u
SYMATTR Value2 l=1u w={wp}
SYMBOL TCLib\\triangular -1008 464 R0
WINDOW 38 -102 -2 Center 2
WINDOW 3 -206 42 Center 2
SYMATTR Value Vpp=5 Freq=100 Voff=2.5 Sym=0.5
SYMATTR InstName U1
SYMBOL TCLib\\triangular -896 464 R0
WINDOW 38 98 -3 Center 2
WINDOW 3 140 48 Center 2
SYMATTR Value Vpp=5 Freq=100 Voff=2.5 Sym=0.5
SYMATTR InstName U2
SYMATTR Value2 Nper=1k Phase=90
SYMBOL voltage -944 944 R0
SYMATTR InstName V1
SYMATTR Value 5
SYMBOL voltage -1008 672 R0
WINDOW 3 -319 109 Left 2
WINDOW 123 0 0 Left 0
WINDOW 39 0 0 Left 0
SYMATTR Value PULSE(0 5 0.1m 10m 10m 10m 40m)
SYMATTR InstName V2
SYMBOL voltage -896 672 R0
WINDOW 3 -33 101 Left 2
WINDOW 123 0 0 Left 0
WINDOW 39 0 0 Left 0
SYMATTR Value PULSE(0 5 10m 10m 10m 10m 40m)
SYMATTR InstName V3
TEXT -120 792 Left 2 !.tran 0 60m 0 100u
TEXT -120 744 Left 2 !.lib models.txt
TEXT -120 840 Left 2 !.param wp=12u wn=2u
RECTANGLE Normal 528 560 -304 -384
