Version 4.1
SHEET 1 1544 1080
WIRE 544 -112 544 -160
WIRE 624 -112 544 -112
WIRE 544 -96 544 -112
WIRE 624 -48 624 -112
WIRE 624 -48 544 -48
WIRE 496 -16 448 -16
WIRE 80 64 48 64
WIRE 448 64 448 -16
WIRE 448 64 80 64
WIRE 544 64 544 0
WIRE 608 64 544 64
WIRE 80 96 80 64
WIRE 544 128 544 64
WIRE -176 160 -176 96
WIRE 640 176 544 176
WIRE 1360 176 1360 128
WIRE 1440 176 1360 176
WIRE 1360 192 1360 176
WIRE 80 208 80 176
WIRE 448 208 448 64
WIRE 496 208 448 208
WIRE 1440 240 1440 176
WIRE 1440 240 1360 240
WIRE 544 256 544 224
WIRE 640 256 640 176
WIRE 640 256 544 256
WIRE -176 272 -176 240
WIRE 1312 272 1264 272
WIRE 896 352 864 352
WIRE 1264 352 1264 272
WIRE 1264 352 896 352
WIRE 1360 352 1360 288
WIRE 1424 352 1360 352
WIRE 640 368 640 256
WIRE 896 384 896 352
WIRE 1360 416 1360 352
WIRE 1456 464 1360 464
WIRE 1264 496 1264 352
WIRE 1312 496 1264 496
WIRE 1360 544 1360 512
WIRE 1456 544 1456 464
WIRE 1456 544 1360 544
WIRE 624 560 624 512
WIRE 704 560 624 560
WIRE 624 576 624 560
WIRE 704 624 704 560
WIRE 704 624 624 624
WIRE 576 656 528 656
WIRE 1456 656 1456 544
WIRE 160 736 128 736
WIRE 528 736 528 656
WIRE 528 736 160 736
WIRE 624 736 624 672
WIRE 688 736 624 736
WIRE 160 768 160 736
WIRE 624 800 624 736
WIRE 720 848 624 848
WIRE 528 880 528 736
WIRE 576 880 528 880
WIRE 624 928 624 896
WIRE 720 928 720 848
WIRE 720 928 624 928
WIRE 720 1040 720 928
FLAG -176 272 0
FLAG -176 96 VDD
FLAG 48 64 Vin
IOPIN 48 64 In
FLAG 80 208 0
FLAG 640 368 0
FLAG 544 -160 VDD
FLAG 608 64 Vo0_1
IOPIN 608 64 Out
FLAG 128 736 Vin
IOPIN 128 736 In
FLAG 720 1040 0
FLAG 624 512 VDD
FLAG 688 736 Vo1
IOPIN 688 736 Out
FLAG 864 352 Vin
IOPIN 864 352 In
FLAG 1456 656 0
FLAG 1360 128 VDD
FLAG 1424 352 Vo10
IOPIN 1424 352 Out
SYMBOL voltage -176 144 R0
SYMATTR InstName VDD
SYMATTR Value 5
SYMBOL voltage -96 448 R0
WINDOW 123 24 92 Left 2
WINDOW 39 0 0 Left 0
WINDOW 3 24 44 Left 2
SYMATTR Value PULSE(0 5 0.5m 1n 1n 0.5m 1m)
SYMATTR InstName VCM
SYMBOL nmos4 496 128 R0
SYMATTR InstName M1
SYMATTR Value N_1u
SYMATTR Value2 l=1u w=2u
SYMBOL pmos4 496 -96 R0
SYMATTR InstName M2
SYMATTR Value2 l=1u w=48.3u
SYMATTR Value P_1u
SYMBOL TCLib\\triangular 80 144 R0
WINDOW 38 93 1 Center 2
WINDOW 3 88 33 Center 2
SYMATTR Value Vpp=5 Freq=50 Voff=2.5 Sym=0.5
SYMATTR InstName U1
SYMBOL voltage -96 592 R0
SYMATTR InstName V1
SYMATTR Value 2.5
SYMBOL nmos4 576 800 R0
SYMATTR InstName M3
SYMATTR Value N_1u
SYMATTR Value2 l=1u w=2u
SYMBOL pmos4 576 576 R0
SYMATTR InstName M4
SYMATTR Value2 l=1u w=4.83u
SYMATTR Value P_1u
SYMBOL nmos4 1312 416 R0
SYMATTR InstName M5
SYMATTR Value N_1u
SYMATTR Value2 l=1u w=2u
SYMBOL pmos4 1312 192 R0
SYMATTR InstName M6
SYMATTR Value2 l=1u w=0.483u
SYMATTR Value P_1u
TEXT 864 96 Left 2 !.lib models.lib
TEXT 24 392 Left 2 !.tran 10m
TEXT 864 128 Left 2 ;relacion betas = 0.1
