Version 4.1
SHEET 1 3448 816
WIRE 624 -224 624 -272
WIRE 704 -224 624 -224
WIRE 624 -208 624 -224
WIRE 704 -160 704 -224
WIRE 704 -160 624 -160
WIRE 576 -128 528 -128
WIRE 528 -48 528 -128
WIRE 528 -48 304 -48
WIRE 624 -48 624 -112
WIRE 880 -48 624 -48
WIRE 992 -48 880 -48
WIRE 624 16 624 -48
WIRE 720 64 624 64
WIRE 528 96 528 -48
WIRE 576 96 528 96
WIRE 880 96 880 -48
WIRE 1248 128 1248 64
WIRE 624 144 624 112
WIRE 720 144 720 64
WIRE 720 144 624 144
WIRE 720 240 720 144
WIRE 880 240 880 160
WIRE 1248 240 1248 208
WIRE -112 576 -112 528
WIRE 368 592 368 528
WIRE -112 704 -112 656
WIRE 368 704 368 672
FLAG 1248 240 0
FLAG 1248 64 VDD
FLAG 304 -48 VinP
IOPIN 304 -48 In
FLAG 368 704 0
FLAG 720 240 0
FLAG 624 -272 VDD
FLAG 880 240 0
FLAG 992 -48 Vo
IOPIN 992 -48 Out
FLAG 368 528 Vin
FLAG -112 528 VinP
FLAG -112 704 0
SYMBOL voltage 1248 112 R0
SYMATTR InstName VDD
SYMATTR Value 5
SYMBOL voltage -112 560 R0
WINDOW 123 24 92 Left 2
WINDOW 39 0 0 Left 0
WINDOW 3 24 44 Left 2
SYMATTR Value PULSE(0 5 0.5m 1n 1n 0.5m 1m)
SYMATTR InstName VCM
SYMBOL nmos4 576 16 R0
WINDOW 0 -37 -14 Left 2
SYMATTR InstName M1
SYMATTR Value N_1u
SYMATTR Value2 l=1u w=2u
SYMBOL pmos4 576 -208 R0
WINDOW 0 -42 -14 Left 2
SYMATTR InstName M2
SYMATTR Value2 l=1u w=4.83u
SYMATTR Value P_1u
SYMBOL TCLib\\triangular 368 640 R0
SYMATTR Value Vpp=5 Freq=50 Voff=2.5 Sym=0.5
SYMATTR InstName U1
SYMBOL cap 864 96 R0
SYMATTR InstName C1
SYMATTR Value 25p
TEXT 24 440 Left 2 !.lib models.lib
TEXT 24 392 Left 2 !.tran 0 2m 0
RECTANGLE Normal 1088 304 208 -352
