Version 4.1
SHEET 1 3448 1380
WIRE 832 -224 832 -272
WIRE 912 -224 832 -224
WIRE 1168 -224 1168 -272
WIRE 1248 -224 1168 -224
WIRE 1520 -224 1520 -272
WIRE 1600 -224 1520 -224
WIRE 1888 -224 1888 -272
WIRE 1968 -224 1888 -224
WIRE 2240 -224 2240 -272
WIRE 2320 -224 2240 -224
WIRE 832 -208 832 -224
WIRE 1168 -208 1168 -224
WIRE 1520 -208 1520 -224
WIRE 1888 -208 1888 -224
WIRE 2240 -208 2240 -224
WIRE 912 -160 912 -224
WIRE 912 -160 832 -160
WIRE 1248 -160 1248 -224
WIRE 1248 -160 1168 -160
WIRE 1600 -160 1600 -224
WIRE 1600 -160 1520 -160
WIRE 1968 -160 1968 -224
WIRE 1968 -160 1888 -160
WIRE 2320 -160 2320 -224
WIRE 2320 -160 2240 -160
WIRE 784 -128 736 -128
WIRE 1120 -128 1072 -128
WIRE 1472 -128 1424 -128
WIRE 1840 -128 1792 -128
WIRE 2192 -128 2144 -128
WIRE 736 -48 736 -128
WIRE 736 -48 512 -48
WIRE 832 -48 832 -112
WIRE 1072 -48 1072 -128
WIRE 1072 -48 832 -48
WIRE 1168 -48 1168 -112
WIRE 1424 -48 1424 -128
WIRE 1424 -48 1168 -48
WIRE 1520 -48 1520 -112
WIRE 1792 -48 1792 -128
WIRE 1792 -48 1520 -48
WIRE 1888 -48 1888 -112
WIRE 2144 -48 2144 -128
WIRE 2144 -48 1888 -48
WIRE 2240 -48 2240 -112
WIRE 2496 -48 2240 -48
WIRE 2624 -48 2496 -48
WIRE 832 16 832 -48
WIRE 1168 16 1168 -48
WIRE 1520 16 1520 -48
WIRE 1888 16 1888 -48
WIRE 2240 16 2240 -48
WIRE -128 48 -128 -16
WIRE 928 64 832 64
WIRE 1264 64 1168 64
WIRE 1616 64 1520 64
WIRE 1984 64 1888 64
WIRE 2336 64 2240 64
WIRE 736 96 736 -48
WIRE 784 96 736 96
WIRE 1072 96 1072 -48
WIRE 1120 96 1072 96
WIRE 1424 96 1424 -48
WIRE 1472 96 1424 96
WIRE 1792 96 1792 -48
WIRE 1840 96 1792 96
WIRE 2144 96 2144 -48
WIRE 2192 96 2144 96
WIRE 2496 96 2496 -48
WIRE 832 144 832 112
WIRE 928 144 928 64
WIRE 928 144 832 144
WIRE 1168 144 1168 112
WIRE 1264 144 1264 64
WIRE 1264 144 1168 144
WIRE 1520 144 1520 112
WIRE 1616 144 1616 64
WIRE 1616 144 1520 144
WIRE 1888 144 1888 112
WIRE 1984 144 1984 64
WIRE 1984 144 1888 144
WIRE 2240 144 2240 112
WIRE 2336 144 2336 64
WIRE 2336 144 2240 144
WIRE -128 160 -128 128
WIRE 928 240 928 144
WIRE 1264 240 1264 144
WIRE 1616 240 1616 144
WIRE 1984 240 1984 144
WIRE 2336 240 2336 144
WIRE 2496 240 2496 160
WIRE -112 576 -112 512
WIRE -112 704 -112 656
WIRE 16 1024 16 992
WIRE 400 1312 400 1232
WIRE 576 1328 576 1248
WIRE 976 1344 976 1264
WIRE 784 1360 784 1280
FLAG -128 160 0
FLAG -128 -16 VDD
FLAG 512 -48 VinP
IOPIN 512 -48 In
FLAG 16 1024 0
FLAG 928 240 0
FLAG 832 -272 VDD
FLAG 400 1312 0
FLAG 1264 240 0
FLAG 1168 -272 VDD
FLAG 576 1328 0
FLAG 1616 240 0
FLAG 1520 -272 VDD
FLAG 784 1360 0
FLAG 1984 240 0
FLAG 1888 -272 VDD
FLAG 976 1344 0
FLAG 2336 240 0
FLAG 2240 -272 VDD
FLAG 2496 240 0
FLAG 2624 -48 Vo
IOPIN 2624 -48 Out
FLAG -112 704 0
FLAG -112 512 VinP
SYMBOL voltage -128 32 R0
SYMATTR InstName VDD
SYMATTR Value 5
SYMBOL voltage -112 560 R0
WINDOW 123 24 92 Left 2
WINDOW 39 0 0 Left 0
WINDOW 3 24 44 Left 2
SYMATTR Value PULSE(0 5 0.5m 1n 1n 0.5m 1m)
SYMATTR InstName VCM
SYMBOL nmos4 784 16 R0
SYMATTR InstName M1
SYMATTR Value N_1u
SYMATTR Value2 l=1u w=2u
SYMBOL pmos4 784 -208 R0
SYMATTR InstName M2
SYMATTR Value2 l=1u w=4.83u
SYMATTR Value P_1u
SYMBOL TCLib\\triangular 16 960 R0
SYMATTR Value Vpp=5 Freq=50 Voff=2.5 Sym=0.5
SYMATTR InstName U1
SYMBOL voltage 416 576 R0
SYMATTR InstName V1
SYMATTR Value 2.5
SYMBOL cap 384 1168 R0
SYMATTR InstName C1
SYMATTR Value 25p
SYMBOL nmos4 1120 16 R0
SYMATTR InstName M3
SYMATTR Value N_1u
SYMATTR Value2 l=1u w=4u
SYMBOL pmos4 1120 -208 R0
SYMATTR InstName M4
SYMATTR Value2 l=1u w=9.66u
SYMATTR Value P_1u
SYMBOL cap 560 1184 R0
SYMATTR InstName C2
SYMATTR Value 25p
SYMBOL nmos4 1472 16 R0
SYMATTR InstName M5
SYMATTR Value N_1u
SYMATTR Value2 l=1u w=8u
SYMBOL pmos4 1472 -208 R0
SYMATTR InstName M6
SYMATTR Value2 l=1u w=19.32u
SYMATTR Value P_1u
SYMBOL cap 768 1216 R0
SYMATTR InstName C3
SYMATTR Value 25p
SYMBOL nmos4 1840 16 R0
SYMATTR InstName M7
SYMATTR Value N_1u
SYMATTR Value2 l=1u w=16u
SYMBOL pmos4 1840 -208 R0
SYMATTR InstName M8
SYMATTR Value2 l=1u w=38.64u
SYMATTR Value P_1u
SYMBOL cap 960 1200 R0
SYMATTR InstName C4
SYMATTR Value 25p
SYMBOL nmos4 2192 16 R0
SYMATTR InstName M9
SYMATTR Value N_1u
SYMATTR Value2 l=1u w=32u
SYMBOL pmos4 2192 -208 R0
SYMATTR InstName M10
SYMATTR Value2 l=1u w=77.28u
SYMATTR Value P_1u
SYMBOL cap 2480 96 R0
SYMATTR InstName C5
SYMATTR Value 25p
TEXT 24 440 Left 2 !.lib models.lib
TEXT 24 392 Left 2 !.tran 0 500.024u 499.996u 0.1n
RECTANGLE Normal 2752 368 352 -448
