Version 4.1
SHEET 1 880 1076
WIRE 80 -80 80 -128
WIRE 80 -80 -16 -80
WIRE 208 -80 80 -80
WIRE -16 -32 -16 -80
WIRE 208 -32 208 -80
WIRE -16 16 -16 -16
WIRE 208 16 208 -16
WIRE -64 48 -176 48
WIRE 160 48 128 48
WIRE 128 80 128 48
WIRE 128 80 -176 80
WIRE -16 112 -16 64
WIRE 80 112 -16 112
WIRE 208 112 208 64
WIRE 208 112 80 112
WIRE 80 176 80 112
WIRE 368 176 80 176
WIRE 80 208 80 176
WIRE 32 288 -176 288
WIRE 80 288 80 256
WIRE 80 320 80 304
WIRE -1008 368 -1008 304
WIRE -896 368 -896 304
WIRE 32 400 -176 400
WIRE 80 400 80 368
WIRE 80 464 80 416
WIRE -1008 496 -1008 448
WIRE -896 496 -896 448
WIRE -1008 688 -1008 656
WIRE -896 688 -896 656
WIRE -1008 800 -1008 768
WIRE -896 800 -896 768
WIRE -944 1056 -944 1040
FLAG 80 464 0
FLAG 80 -128 VDD
FLAG 368 176 Vo
FLAG -1008 496 0
FLAG -896 496 0
FLAG -176 80 A
FLAG -176 288 A
FLAG -176 400 B
FLAG -176 48 B
FLAG -944 1056 0
FLAG -944 960 VDD
FLAG -1008 800 0
FLAG -896 800 0
FLAG -1008 656 A
FLAG -896 656 B
SYMBOL nmos4 32 208 R0
SYMATTR InstName M1
SYMATTR Value N_1u
SYMATTR Value2 l=1u w={wn}
SYMBOL nmos4 32 320 R0
SYMATTR InstName M2
SYMATTR Value N_1u
SYMATTR Value2 l=1u w={wn}
SYMBOL pmos4 -64 -32 R0
SYMATTR InstName M3
SYMATTR Value P_1u
SYMATTR Value2 l=1u w={wp}
SYMBOL pmos4 160 -32 R0
SYMATTR InstName M4
SYMATTR Value P_1u
SYMATTR Value2 l=1u w={wp}
SYMBOL TCLib\\triangular -1008 416 R0
WINDOW 38 -102 -2 Center 2
WINDOW 3 -206 42 Center 2
SYMATTR Value Vpp=5 Freq=100 Voff=2.5 Sym=0.5
SYMATTR InstName U1
SYMBOL TCLib\\triangular -896 416 R0
WINDOW 38 98 -3 Center 2
WINDOW 3 140 48 Center 2
SYMATTR Value Vpp=5 Freq=100 Voff=2.5 Sym=0.5
SYMATTR InstName U2
SYMATTR Value2 Nper=1k Phase=90
SYMBOL voltage -944 944 R0
SYMATTR InstName V1
SYMATTR Value 5
SYMBOL voltage -1008 672 R0
WINDOW 3 -319 109 Left 2
WINDOW 123 0 0 Left 0
WINDOW 39 0 0 Left 0
SYMATTR Value PULSE(0 5 0.1m 5m 5m 5m 20m)
SYMATTR InstName V2
SYMBOL voltage -896 672 R0
WINDOW 3 -33 101 Left 2
WINDOW 123 0 0 Left 0
WINDOW 39 0 0 Left 0
SYMATTR Value PULSE(0 5 5m 5m 5m 5m 20m)
SYMATTR InstName V3
TEXT -208 792 Left 2 !.tran 0 20m 0 100u
TEXT -208 744 Left 2 !.lib models.lib
TEXT -208 840 Left 2 !.param wp=4.8u wn=2u
RECTANGLE Normal 448 528 -272 -208
