Version 4.1
SHEET 1 880 840
WIRE 80 -80 80 -128
WIRE 80 -80 -16 -80
WIRE 208 -80 80 -80
WIRE -16 -32 -16 -80
WIRE 208 -32 208 -80
WIRE -16 16 -16 -16
WIRE 208 16 208 -16
WIRE -64 48 -176 48
WIRE 160 48 128 48
WIRE 128 80 128 48
WIRE 128 80 -176 80
WIRE -16 112 -16 64
WIRE 80 112 -16 112
WIRE 208 112 208 64
WIRE 208 112 80 112
WIRE 80 176 80 112
WIRE 368 176 80 176
WIRE 80 208 80 176
WIRE 32 288 -176 288
WIRE 80 288 80 256
WIRE 80 320 80 304
WIRE -672 336 -672 272
WIRE -560 336 -560 272
WIRE 32 400 -176 400
WIRE 80 400 80 368
WIRE -672 464 -672 416
WIRE -560 464 -560 416
WIRE 80 464 80 416
WIRE -640 800 -640 784
FLAG 80 464 0
FLAG 80 -128 VDD
FLAG 368 176 Vo
FLAG -672 464 0
FLAG -560 464 0
FLAG -672 272 A
FLAG -176 80 A
FLAG -176 288 A
FLAG -560 272 B
FLAG -176 400 B
FLAG -176 48 B
FLAG -640 800 0
FLAG -640 704 VDD
SYMBOL nmos4 32 208 R0
SYMATTR InstName M1
SYMATTR Value N_1u
SYMATTR Value2 l=1u w=2u
SYMBOL nmos4 32 320 R0
SYMATTR InstName M2
SYMATTR Value N_1u
SYMATTR Value2 l=1u w=2u
SYMBOL pmos4 -64 -32 R0
SYMATTR InstName M3
SYMATTR Value P_1u
SYMATTR Value2 l=1u w=3u
SYMBOL pmos4 160 -32 R0
SYMATTR InstName M4
SYMATTR Value P_1u
SYMATTR Value2 l=1u w=3u
SYMBOL TCLib\\triangular -672 384 R0
WINDOW 38 -102 -2 Center 2
WINDOW 3 -206 42 Center 2
SYMATTR Value Vpp=5 Freq=100 Voff=2.5 Sym=0.5
SYMATTR InstName U1
SYMBOL TCLib\\triangular -560 384 R0
WINDOW 38 98 -3 Center 2
WINDOW 3 140 48 Center 2
SYMATTR Value Vpp=5 Freq=100 Voff=2.5 Sym=0.5
SYMATTR InstName U2
SYMATTR Value2 Nper=1k Phase=90
SYMBOL voltage -640 688 R0
SYMATTR InstName V1
SYMATTR Value 5
TEXT -1088 824 Left 2 !.tran 15m
TEXT 480 24 Left 2 !.lib models.txt
